84
input.log
O                1.897416            1.816473            0.718092
C                2.985440            0.984516            0.360191
C                3.501294            1.316799           -1.029128
C                3.888791            2.780528           -1.093637
C                2.710949            3.654972           -0.694373
C                2.134520            3.217352            0.651075
C                0.815847            3.899387            0.986635
O               -0.233994            3.558362            0.097430
O                1.701101            3.590813           -1.688744
O                4.250346            3.162081           -2.399882
O                4.644344            0.568662           -1.335880
O                2.443703           -0.291325            0.370096
C                3.075951           -1.337431            1.090583
C                3.219750           -2.512418            0.139852
O                4.039518           -2.150383           -0.950765
C                1.834157           -2.896344           -0.339312
C                0.927960           -3.243040            0.844006
O                0.939252           -2.224531            1.827955
C                2.205132           -1.775681            2.267254
C                1.942681           -0.688434            3.305232
O                0.995544            0.280483            2.909235
O               -0.401130           -3.432147            0.466117
C               -1.072837           -2.304269           -0.069616
C               -1.485003           -2.562765           -1.507560
C               -2.240929           -1.351570           -2.035667
C               -3.449423           -1.038499           -1.164942
O               -3.121372           -1.019914            0.202930
C               -2.335379           -2.066741            0.761090
C               -2.050084           -1.606868            2.179111
O               -1.507180           -0.301316            2.178221
O               -3.883330            0.247806           -1.453371
C               -5.291423            0.488265           -1.301095
C               -5.516825            1.943913           -0.917390
C               -5.733491            2.198386            0.575075
C               -4.616991            1.787720            1.535983
C               -3.299026            2.539138            1.355581
N               -2.315152            1.763868            0.553865
O               -2.576466           -1.520158           -3.393946
O               -0.352785           -2.802844           -2.316176
O                1.962371           -3.981422           -1.219560
H                3.802438            1.077539            1.097224
H                2.679862            1.127378           -1.734511
H                4.721451            2.954267           -0.394295
H                3.057246            4.692331           -0.586985
H                2.865449            3.505866            1.423562
H                0.975491            4.985005            0.997223
H                0.500833            3.594900            1.988079
H                0.128863            3.631835           -0.801755
H                2.137606            3.668831           -2.546200
H                4.862994            2.501555           -2.740777
H                4.422809           -0.379385           -1.339055
H                4.062307           -1.021585            1.451558
H                3.674144           -3.354832            0.682041
H                3.903815           -2.816447           -1.635704
H                1.422019           -2.028497           -0.862148
H                1.239158           -4.204605            1.273116
H                2.743941           -2.589109            2.782599
H                1.530978           -1.157427            4.201391
H                2.896710           -0.222553            3.586011
H                1.315873            0.794763            2.149687
H               -0.443093           -1.408726           -0.015427
H               -2.142669           -3.448925           -1.523062
H               -1.569759           -0.485674           -2.007891
H               -4.251060           -1.775990           -1.354320
H               -2.907030           -3.006520            0.799517
H               -2.994979           -1.587035            2.731558
H               -1.374565           -2.316602            2.660067
H               -0.568307           -0.288662            2.462665
H               -5.695917           -0.181745           -0.532707
H               -5.772341            0.252538           -2.255850
H               -6.399385            2.310868           -1.449778
H               -4.679904            2.533781           -1.312366
H               -6.647884            1.676793            0.881020
H               -5.941705            3.265672            0.716013
H               -4.424337            0.711056            1.476200
H               -4.971662            1.970446            2.554195
H               -3.448178            3.503110            0.861818
H               -2.820617            2.731278            2.317464
H               -1.484959            2.350070            0.334088
H               -2.746833            1.406680           -0.307681
H               -2.007884            0.922013            1.098389
H               -3.283395           -2.168423           -3.474083
H               -0.622596           -2.675283           -3.233515
H                1.176062           -3.964239           -1.782129
