84
input.log
O               -2.050623            1.841055           -0.445595
C               -2.641433            1.028953            0.558619
C               -2.061142            1.378237            1.917991
C               -2.179906            2.868817            2.194584
C               -1.636803            3.694441            1.033528
C               -2.269416            3.241576           -0.269886
C               -1.737405            3.930709           -1.514021
O               -2.489210            3.606338           -2.653140
O               -0.220348            3.550296            0.954136
O               -1.429723            3.236999            3.330262
O               -2.721411            0.697713            2.946013
O               -2.278874           -0.266626            0.257114
C               -3.245375           -1.210254           -0.193167
C               -3.132757           -2.412935            0.724177
O               -3.411818           -2.006982            2.049816
C               -1.722259           -2.963530            0.631382
C               -1.270836           -3.210091           -0.816093
O               -1.591228           -2.132662           -1.678637
C               -2.923637           -1.672150           -1.614851
C               -3.095926           -0.629195           -2.711389
O               -2.114147            0.388614           -2.700029
O                0.105707           -3.415135           -0.916033
C                0.938491           -2.376507           -0.432645
C                1.797640           -2.906722            0.706073
C                2.747347           -1.825495            1.183722
C                3.561424           -1.253828            0.035129
O                2.711482           -0.861268           -1.022054
C                1.863439           -1.878169           -1.548472
C                1.142594           -1.250313           -2.722893
O                0.492107           -0.051807           -2.337886
O                4.178958           -0.110382            0.511818
C                5.301614            0.346387           -0.255845
C                5.734865            1.703268            0.263200
C                4.892786            2.916913           -0.140286
C                3.408070            2.843827            0.239292
C                2.567252            2.235398           -0.876314
N                1.344609            1.566006           -0.362338
O                3.559419           -2.396205            2.177301
O                0.982109           -3.326967            1.782247
O               -1.668439           -4.146636            1.381964
H               -3.735916            1.159971            0.554800
H               -0.992282            1.112072            1.879422
H               -3.243489            3.112259            2.333231
H               -1.884680            4.750005            1.201789
H               -3.351094            3.433858           -0.212975
H               -0.672884            3.692523           -1.639545
H               -1.817133            5.012043           -1.372872
H               -2.243788            2.734281           -2.976845
H                0.106276            3.689248            1.853223
H               -1.694514            2.675219            4.065630
H               -2.817306           -0.241027            2.710041
H               -4.254494           -0.784129           -0.141166
H               -3.856096           -3.176158            0.404380
H               -3.219330           -2.759619            2.621028
H               -1.074886           -2.205403            1.080975
H               -1.724272           -4.140674           -1.180818
H               -3.627591           -2.488233           -1.853330
H               -3.007326           -1.127186           -3.678762
H               -4.105380           -0.202715           -2.645521
H               -2.181298            0.901279           -1.873130
H                0.340152           -1.520485           -0.099252
H                2.381466           -3.759368            0.327990
H                2.141589           -1.003475            1.602475
H                4.297579           -1.993867           -0.321979
H                2.461420           -2.723017           -1.923320
H                1.881473           -1.019600           -3.497214
H                0.422792           -1.968743           -3.120091
H               -0.467784           -0.089970           -2.535144
H                5.031381            0.386236           -1.318429
H                6.115596           -0.380057           -0.141419
H                6.761114            1.870247           -0.080660
H                5.788090            1.638742            1.356684
H                4.985567            3.087167           -1.220783
H                5.340140            3.795641            0.332703
H                3.025999            3.840859            0.478852
H                3.305983            2.237910            1.146903
H                2.248387            2.990146           -1.598393
H                3.112868            1.464460           -1.417277
H                0.666600            2.231513            0.049705
H                1.629622            0.899625            0.354097
H                0.911214            0.979278           -1.124617
H                4.113055           -1.709364            2.559372
H                1.568587           -3.549137            2.514120
H               -0.741120           -4.261167            1.633109
