84
input.log
O               -1.900749            1.832734           -0.826538
C               -2.902971            0.926466           -0.397360
C               -3.304779            1.189776            1.044191
C               -3.702896            2.641215            1.228905
C               -2.588396            3.563559            0.764496
C               -2.163931            3.220757           -0.659199
C               -0.900076            3.948762           -1.096480
O                0.254466            3.524867           -0.391476
O               -1.468968            3.460320            1.629608
O               -3.934684            2.939365            2.585221
O               -4.407084            0.410243            1.412003
O               -2.292065           -0.315530           -0.474068
C               -2.802041           -1.342448           -1.308852
C               -3.050957           -2.554820           -0.426022
O               -4.012219           -2.242599            0.558664
C               -1.733171           -2.924213            0.225109
C               -0.680500           -3.265451           -0.825156
O               -0.582791           -2.231394           -1.803128
C               -1.781176           -1.733008           -2.379722
C               -1.378006           -0.613609           -3.337374
O               -0.593837            0.409878           -2.766348
O                0.588545           -3.442877           -0.275366
C                1.186396           -2.286855            0.285564
C                1.351358           -2.373441            1.797383
C                1.968826           -1.065390            2.275807
C                3.261579           -0.740962            1.537687
O                3.049485           -0.811515            0.131450
C                2.595284           -2.095432           -0.292946
C                2.694099           -2.173054           -1.802071
O                1.907568           -1.209726           -2.458421
O                3.610067            0.548152            1.864794
C                4.983611            0.933110            1.682823
C                5.054629            2.161785            0.796617
C                4.703303            1.856814           -0.666597
C                3.744441            2.849094           -1.340255
C                2.750874            2.160931           -2.261511
N                1.739047            1.410661           -1.467525
O                2.179352           -1.195809            3.660115
O                0.112842           -2.582550            2.443910
O               -1.954160           -4.005882            1.090048
H               -3.784866            0.982708           -1.057503
H               -2.422000            0.978819            1.665377
H               -4.604575            2.836810            0.627876
H               -2.960697            4.597454            0.762691
H               -2.983326            3.528310           -1.327487
H               -1.054165            5.028423           -0.978683
H               -0.717136            3.749417           -2.155651
H                0.027094            3.550739            0.552597
H               -1.802608            3.494131            2.534421
H               -4.515724            2.260005            2.943571
H               -4.220398           -0.528828            1.234564
H               -3.734461           -1.024162           -1.791414
H               -3.415172           -3.384997           -1.049233
H               -3.960136           -2.942002            1.222551
H               -1.398725           -2.050076            0.789783
H               -0.921090           -4.222798           -1.303100
H               -2.250760           -2.517418           -2.996063
H               -0.775574           -1.050535           -4.137529
H               -2.289311           -0.208280           -3.798104
H               -1.115522            0.912864           -2.117723
H                0.595298           -1.399737            0.031018
H                2.031612           -3.205448            2.032981
H                1.256937           -0.253402            2.059691
H                4.049332           -1.460866            1.816313
H                3.260749           -2.872859            0.115047
H                3.734982           -1.995796           -2.085583
H                2.427970           -3.190945           -2.108918
H                0.985724           -1.501892           -2.384111
H                5.545028            0.099669            1.244419
H                5.396849            1.141318            2.674447
H                6.058468            2.589989            0.882032
H                4.370701            2.909074            1.214755
H                4.262156            0.857181           -0.702476
H                5.619381            1.781765           -1.260365
H                4.294565            3.594030           -1.921866
H                3.178841            3.415596           -0.590533
H                2.202757            2.879179           -2.874583
H                3.236736            1.442307           -2.925426
H                1.119868            0.852098           -2.075442
H                1.156822            2.082164           -0.929403
H                2.189537            0.733222           -0.836329
H                2.473690           -0.348717            4.006716
H                0.264983           -2.465638            3.388685
H               -1.266318           -3.950447            1.766701
