84
input.log
O               -3.476761           -1.450868           -0.062476
C               -3.388487           -0.346530           -0.956987
C               -2.702905           -0.714229           -2.280426
C               -1.512081           -1.624874           -2.000109
C               -1.996957           -2.953496           -1.340702
C               -3.343860           -2.766519           -0.621773
C               -3.602551           -3.733420            0.520917
O               -2.591269           -3.696094            1.520924
O               -0.961497           -3.468492           -0.517782
O               -0.542470           -0.954314           -1.221661
O               -3.578957           -1.410407           -3.138084
O               -2.587142            0.594883           -0.319957
C               -3.194643            1.596810            0.497246
C               -2.893595            2.944379           -0.130474
O               -3.440710            2.971336           -1.423404
C               -1.387376            3.143476           -0.161922
C               -0.793169            2.990995            1.241410
O               -1.195140            1.763786            1.834406
C               -2.591759            1.562802            1.900287
C               -2.819337            0.280302            2.687150
O               -2.094624           -0.827855            2.180458
O                0.594326            3.028488            1.265682
C                1.286506            2.030497            0.531342
C                2.136686            2.699091           -0.536741
C                3.043342            1.684771           -1.207355
C                3.861121            0.950851           -0.161031
O                2.983149            0.326756            0.759289
C                2.193154            1.253641            1.492520
C                1.444981            0.461805            2.544893
O                0.696417           -0.591728            1.964458
O                4.586844           -0.026719           -0.804634
C                5.607785           -0.635703           -0.007083
C                5.817407           -2.057878           -0.489785
C                4.522416           -2.861766           -0.571785
C                3.791026           -3.028853            0.760373
C                2.349623           -3.473293            0.582995
N                1.511716           -2.366277            0.057650
O                3.845725            2.397522           -2.115934
O                1.300948            3.315542           -1.498818
O               -1.134320            4.417467           -0.686545
H               -4.396048            0.048624           -1.138189
H               -2.348945            0.223267           -2.721656
H               -1.031272           -1.866725           -2.950530
H               -2.176185           -3.675363           -2.144839
H               -4.134991           -2.908693           -1.364761
H               -3.610957           -4.754117            0.131081
H               -4.586824           -3.524947            0.951724
H               -2.663767           -2.890537            2.049998
H               -1.335764           -3.655063            0.366942
H               -0.987297           -0.352675           -0.608015
H               -4.122886           -0.784086           -3.620815
H               -4.277500            1.432080            0.542531
H               -3.344629            3.729759            0.497013
H               -3.088466            3.756152           -1.857648
H               -0.968230            2.370716           -0.816682
H               -1.111300            3.837463            1.864783
H               -3.068583            2.375865            2.473905
H               -2.475728            0.434059            3.711995
H               -3.895094            0.064744            2.718523
H               -2.459181           -1.022080            1.296336
H                0.594652            1.321534            0.065971
H                2.761392            3.461627           -0.047483
H                2.421029            0.937591           -1.723990
H                4.520325            1.653525            0.379683
H                2.840974            1.976449            2.014319
H                2.177425            0.025777            3.231911
H                0.796459            1.138948            3.103148
H               -0.262458           -0.469171            2.085743
H                5.296880           -0.621950            1.042373
H                6.530849           -0.051641           -0.097545
H                6.533098           -2.542295            0.184538
H                6.285344           -2.037342           -1.479207
H                4.737603           -3.851199           -0.989052
H                3.877958           -2.360156           -1.304197
H                3.786939           -2.091832            1.326864
H                4.309988           -3.767784            1.378644
H                2.271323           -4.311733           -0.114403
H                1.903344           -3.781567            1.530670
H                1.960841           -1.883220           -0.717787
H                1.319603           -1.638484            0.783499
H                0.578641           -2.694042           -0.271826
H                4.414534            1.773399           -2.575666
H                1.869099            3.613340           -2.218364
H               -0.224306            4.394148           -1.018225
