84
input.log
O               -2.722308            2.044214            0.395557
C               -2.410996            0.927850            1.222993
C               -1.001114            1.024309            1.795143
C               -0.653572            2.391032            2.343471
C               -0.973206            3.466367            1.319791
C               -2.448251            3.340417            0.921514
C               -2.874086            4.332074           -0.151836
O               -2.067642            4.258487           -1.317103
O               -0.100280            3.296530            0.223779
O                0.738127            2.430914            2.635327
O               -0.788999            0.091496            2.827421
O               -2.328242           -0.173384            0.400668
C               -3.474070           -0.759582           -0.212406
C               -3.608338           -2.169064            0.331893
O               -3.916593           -2.096843            1.702286
C               -2.277350           -2.866574            0.121191
C               -1.751612           -2.768927           -1.317832
O               -1.922793           -1.487396           -1.897334
C               -3.178153           -0.868083           -1.711207
C               -3.155744            0.440910           -2.486559
O               -2.124982            1.338860           -2.109804
O               -0.389071           -3.066930           -1.394075
C                0.491188           -2.239303           -0.647950
C                1.218341           -3.083617            0.388143
C                2.288735           -2.262929            1.084213
C                3.254462           -1.692271            0.062452
O                2.543913           -0.955314           -0.901536
C                1.508099           -1.622538           -1.613993
C                0.917557           -0.553618           -2.512222
O                0.508982            0.562979           -1.738324
O                4.086019           -0.788709            0.715064
C                5.377663           -0.528919            0.129444
C                5.519161            0.946508           -0.197400
C                4.679861            1.378401           -1.409870
C                3.986509            2.736833           -1.302564
C                3.113580            2.914552           -0.069044
N                2.246363            1.736734            0.202949
O                2.928283           -3.118877            1.998834
O                0.299524           -3.578081            1.344612
O               -2.400637           -4.207824            0.516025
H               -3.179485            0.820435            2.002431
H               -0.340361            0.829356            0.939495
H               -1.232430            2.583903            3.256466
H               -0.826459            4.452566            1.783698
H               -3.069833            3.516543            1.812677
H               -2.767755            5.347090            0.239080
H               -3.930401            4.170134           -0.390918
H               -2.337623            3.511238           -1.866591
H               -0.512985            3.735032           -0.540909
H                0.891537            1.813546            3.358533
H               -1.043277           -0.784042            2.517554
H               -4.377118           -0.171353           -0.019040
H               -4.403969           -2.691908           -0.219880
H               -3.859569           -2.991550            2.054155
H               -1.570521           -2.358867            0.778509
H               -2.243166           -3.534455           -1.931224
H               -3.980947           -1.474832           -2.163495
H               -2.997939            0.212144           -3.542354
H               -4.139348            0.919137           -2.387581
H               -2.264742            1.570175           -1.171513
H               -0.052271           -1.419394           -0.165565
H                1.698312           -3.926889           -0.131974
H                1.805921           -1.419022            1.602874
H                3.836161           -2.500889           -0.409232
H                1.927928           -2.425575           -2.238098
H                1.688813           -0.238598           -3.224151
H                0.076035           -0.976481           -3.063055
H               -0.426848            0.765820           -1.929328
H                5.499385           -1.143692           -0.769410
H                6.127025           -0.840137            0.862620
H                6.579283            1.160178           -0.366697
H                5.253755            1.506606            0.707206
H                3.917245            0.619291           -1.602914
H                5.311455            1.387379           -2.302885
H                3.375985            2.885158           -2.199965
H                4.719050            3.551126           -1.292478
H                3.714283            3.065658            0.830791
H                2.449534            3.773794           -0.167143
H                2.806732            0.899434            0.397605
H                1.616719            1.482340           -0.585060
H                1.652526            1.948184            1.020376
H                3.547177           -2.605718            2.525351
H                0.819028           -3.996905            2.040496
H               -1.519780           -4.487069            0.795550
