84
input.log
O                2.107757            1.528512            0.360724
C                2.969561            0.426369            0.216722
C                3.739320            0.550774           -1.094962
C                4.564141            1.824152           -1.067962
C                3.690450            3.025827           -0.754972
C                2.822201            2.748604            0.470705
C                1.806588            3.847178            0.721735
O                0.813635            3.915302           -0.292385
O                2.852196            3.325576           -1.860903
O                5.172658            2.072516           -2.313764
O                4.642937           -0.504968           -1.297832
O                2.133103           -0.693281            0.211000
C                2.692894           -1.904975            0.703070
C                2.400540           -3.007925           -0.304125
O                3.047529           -2.736036           -1.527901
C                0.900563           -3.102374           -0.514153
C                0.166775           -3.263686            0.822529
O                0.594098           -2.292524            1.774130
C                2.000589           -2.302953            2.006659
C                2.309070           -1.449598            3.225926
O                2.151151           -0.062634            3.053636
O               -1.215304           -3.171537            0.714058
C               -1.756575           -2.008735            0.112949
C               -2.624621           -2.422809           -1.061894
C               -3.372881           -1.229325           -1.628404
C               -4.114803           -0.500544           -0.522747
O               -3.186039           -0.116129            0.483182
C               -2.590616           -1.230388            1.134811
C               -1.780533           -0.699503            2.299979
O               -0.686071            0.110886            1.881868
O               -4.670360            0.638772           -1.055912
C               -5.633059            1.282655           -0.211176
C               -5.552576            2.782121           -0.421044
C               -4.140036            3.341124           -0.269207
C               -3.509556            3.116474            1.105288
C               -2.014004            3.377179            1.108643
N               -1.270288            2.334885            0.339549
O               -4.234557           -1.727815           -2.619219
O               -1.800774           -2.996814           -2.058761
O                0.649893           -4.189214           -1.362262
H                3.656484            0.377979            1.076640
H                2.998281            0.613020           -1.903553
H                5.325697            1.722980           -0.279073
H                4.332602            3.890025           -0.534592
H                3.491563            2.706729            1.345538
H                2.326427            4.807872            0.815209
H                1.288495            3.650893            1.664592
H                1.285355            3.877399           -1.143470
H                3.391333            3.252918           -2.658267
H                5.582308            1.250640           -2.604589
H                4.150881           -1.298492           -1.566262
H                3.774144           -1.810784            0.845292
H                2.771092           -3.959183            0.105105
H                2.690997           -3.339651           -2.189349
H                0.598706           -2.163128           -0.990242
H                0.354087           -4.270071            1.217702
H                2.310629           -3.328228            2.265758
H                1.704764           -1.825888            4.062058
H                3.359896           -1.609964            3.484703
H                1.214945            0.153593            3.002711
H               -0.968904           -1.342360           -0.256102
H               -3.355839           -3.164447           -0.707626
H               -2.641975           -0.523996           -2.054211
H               -4.883068           -1.155584           -0.075175
H               -3.369226           -1.894735            1.541800
H               -2.424127           -0.071003            2.919262
H               -1.418858           -1.537840            2.898880
H               -0.003380           -0.490015            1.529516
H               -5.421738            1.024730            0.831622
H               -6.631585            0.906775           -0.459882
H               -6.236385            3.258624            0.291047
H               -5.924255            3.026587           -1.421086
H               -4.150933            4.414089           -0.487967
H               -3.527657            2.882309           -1.055904
H               -3.681817            2.093239            1.451065
H               -3.973921            3.782622            1.839260
H               -1.773646            4.340245            0.651914
H               -1.604343            3.374425            2.120748
H               -0.377304            2.753835           -0.016827
H               -1.828812            2.009302           -0.448438
H               -1.055313            1.492579            0.916850
H               -4.683297           -0.988076           -3.038632
H               -2.356347           -3.178517           -2.824804
H               -0.239349           -4.058376           -1.725561
