84
input.log
O                2.278122            1.554552            0.565950
C                3.109938            0.509735            0.115445
C                3.585850            0.771656           -1.306238
C                4.330147            2.090793           -1.363704
C                3.475159            3.210444           -0.794210
C                2.917378            2.820903            0.574008
C                1.904315            3.821551            1.103436
O                0.719734            3.864429            0.320759
O                2.400128            3.501609           -1.675498
O                4.645189            2.453036           -2.687977
O                4.473752           -0.218977           -1.745035
O                2.320207           -0.633590            0.130412
C                2.807786           -1.804160            0.767466
C                2.585632           -2.969243           -0.179984
O                3.321188           -2.762750           -1.365916
C                1.102957           -3.087062           -0.486366
C                0.296851           -3.213153            0.808105
O                0.624663           -2.155802            1.708190
C                2.008729           -2.058017            2.042315
C                2.155694           -0.936341            3.056964
O                1.412107           -1.158324            4.226490
O               -1.079238           -3.196576            0.612185
C               -1.633288           -2.039366            0.010697
C               -2.317971           -2.400511           -1.297150
C               -3.031663           -1.184957           -1.866610
C               -3.957614           -0.571923           -0.830602
O               -3.211636           -0.263918            0.340499
C               -2.671874           -1.425092            0.956652
C               -2.112793           -1.028155            2.306145
O               -1.018089           -0.126200            2.205457
O               -4.457447            0.600717           -1.346125
C               -5.555008            1.156752           -0.610163
C               -5.476030            2.669652           -0.671685
C               -4.123139            3.226825           -0.236529
C               -3.735038            2.915185            1.208689
C               -2.269109            3.197101            1.488357
N               -1.383273            2.214630            0.793706
O               -3.719991           -1.622809           -3.010238
O               -1.360875           -2.874068           -2.223585
O                0.923956           -4.207219           -1.308641
H                3.978376            0.394590            0.788193
H                2.688799            0.832641           -1.939283
H                5.245867            1.997987           -0.759380
H                4.098212            4.106443           -0.665714
H                3.768497            2.805582            1.275262
H                2.367264            4.814388            1.152017
H                1.608658            3.535407            2.115764
H                1.009154            3.926021           -0.606803
H                2.761837            3.523138           -2.570243
H                5.037810            1.685740           -3.117571
H                4.024595           -1.081491           -1.760085
H                3.876298           -1.711772            0.994590
H                2.927123           -3.890707            0.314501
H                3.010934           -3.408687           -2.011305
H                0.807778           -2.170972           -1.010593
H                0.505383           -4.179422            1.283407
H                2.330433           -3.002881            2.503268
H                3.208207           -0.884320            3.352438
H                1.894492            0.018954            2.581982
H                0.493123           -0.943590            4.047807
H               -0.859419           -1.287357           -0.183753
H               -3.060408           -3.186546           -1.093254
H               -2.277497           -0.424229           -2.123138
H               -4.765661           -1.277718           -0.568911
H               -3.468679           -2.164603            1.136363
H               -2.895046           -0.530299            2.883048
H               -1.805314           -1.933226            2.838445
H               -0.265123           -0.666503            1.893122
H               -5.505281            0.806484            0.425737
H               -6.493167            0.797302           -1.046899
H               -6.280796            3.074981           -0.047408
H               -5.680686            2.998070           -1.695599
H               -4.117486            4.312352           -0.381359
H               -3.373942            2.828870           -0.932883
H               -3.937378            1.867659            1.452272
H               -4.336679            3.521193            1.893317
H               -1.977820            4.190787            1.139785
H               -2.038203            3.133755            2.553397
H               -1.806592            1.918914           -0.085878
H               -1.247300            1.340395            1.350256
H               -0.460187            2.664971            0.588759
H               -4.130657           -0.863502           -3.433699
H               -1.810001           -2.981119           -3.069814
H                0.077779           -4.078682           -1.761737
