84
input.log
O                3.110902            2.573465            0.813752
C                3.360668            1.363147            0.178150
C                3.147932            1.396359           -1.343330
C                1.846019            2.080619           -1.743164
C                1.781280            3.440978           -1.064206
C                1.997507            3.387020            0.457090
C                0.758621            3.129557            1.298247
O                0.116168            1.875400            1.090955
O                0.562121            4.114364           -1.285693
O                0.710134            1.300263           -1.396334
O                4.176948            2.123017           -1.972445
O                2.592893            0.319970            0.767563
C                3.327017           -0.791851            1.260703
C                3.751214           -1.751386            0.158157
O                4.668422           -1.134078           -0.716239
C                2.490569           -2.179906           -0.562735
C                1.544654           -2.895607            0.397309
O                1.316199           -2.149966            1.571390
C                2.437970           -1.574081            2.223363
C                1.880661           -0.738884            3.371594
O                0.745305            0.012834            3.015966
O                0.298167           -3.140813           -0.190763
C               -0.558202           -2.026049           -0.385624
C               -0.830874           -1.823552           -1.867563
C               -1.952634           -0.825931           -2.092579
C               -3.191493           -1.214618           -1.306959
O               -2.853503           -1.360534            0.053913
C               -1.875523           -2.351930            0.330507
C               -1.758928           -2.411125            1.844114
O               -1.587123           -1.127850            2.407626
O               -4.080184           -0.158027           -1.398635
C               -5.388017           -0.438078           -0.880458
C               -6.104902            0.873248           -0.625150
C               -5.304764            1.858717            0.224480
C               -4.961453            1.381750            1.644279
C               -3.607757            1.893116            2.111878
N               -2.527827            1.184937            1.376533
O               -2.177141           -0.785923           -3.480334
O                0.345932           -1.352004           -2.524556
O                2.847741           -3.007996           -1.639735
H                4.420367            1.163342            0.367129
H                3.131969            0.360791           -1.693694
H                1.865246            2.234308           -2.829731
H                2.629722            4.002755           -1.472501
H                2.306515            4.395610            0.752173
H                0.057451            3.946714            1.098496
H                1.054309            3.168066            2.350125
H                0.283989            1.582233            0.165793
H                0.557928            4.473027           -2.175675
H                0.755241            0.425886           -1.818887
H                5.001361            1.639540           -1.872099
H                4.212122           -0.443321            1.810583
H                4.223188           -2.627191            0.630871
H                4.783633           -1.733710           -1.462130
H                1.990194           -1.277872           -0.918790
H                1.944944           -3.891611            0.628772
H                3.065948           -2.366300            2.660515
H                1.560497           -1.405784            4.175448
H                2.679017           -0.097279            3.765543
H                0.932272            0.597686            2.261288
H               -0.124487           -1.117009            0.047610
H               -1.119248           -2.791259           -2.300956
H               -1.628709            0.158973           -1.719854
H               -3.630923           -2.150189           -1.694496
H               -2.214986           -3.336468           -0.028006
H               -2.691728           -2.820734            2.241662
H               -0.938691           -3.077656            2.117635
H               -0.645589           -0.910936            2.596608
H               -5.284041           -1.019208            0.041519
H               -5.939161           -1.046778           -1.606972
H               -7.063559            0.640148           -0.147796
H               -6.341484            1.346589           -1.583435
H               -5.855644            2.801765            0.288032
H               -4.389074            2.100784           -0.329656
H               -4.949310            0.287726            1.706881
H               -5.726626            1.714002            2.350641
H               -3.506098            2.965005            1.923313
H               -3.445406            1.715751            3.176409
H               -2.807883            1.019189            0.407884
H               -2.324101            0.231508            1.776228
H               -1.604874            1.668440            1.362798
H               -2.833879           -0.109224           -3.668124
H                0.105306           -1.221823           -3.450556
H                2.117847           -2.996064           -2.266392
