84
input.log
O                2.107017            1.528947            0.360723
C                2.969213            0.427098            0.216815
C                3.739042            0.551721           -1.094809
C                4.563468            1.825350           -1.067774
C                3.689264            3.026712           -0.754952
C                2.821053            2.749265            0.470700
C                1.805052            3.847497            0.721641
O                0.812159            3.915264           -0.292564
O                2.850898            3.325942           -1.860953
O                5.172100            2.073850           -2.313485
O                4.642922           -0.503817           -1.297580
O                2.133218           -0.692896            0.211007
C                2.693453           -1.904376            0.703112
C                2.401508           -3.007411           -0.304107
O                3.048538           -2.735314           -1.527816
C                0.901572           -3.102295           -0.514238
C                0.167698           -3.263668            0.822397
O                0.594743           -2.292421            1.774033
C                2.001214           -2.302593            2.006657
C                2.309470           -1.449265            3.225998
O                2.151510           -0.062305            3.053695
O               -1.214384           -3.171790            0.713746
C               -1.755817           -2.008988            0.112786
C               -2.623551           -2.422987           -1.062342
C               -3.372019           -1.229529           -1.628647
C               -4.114389           -0.501368           -0.522882
O               -3.185899           -0.116865            0.483238
C               -2.590188           -1.231064            1.134706
C               -1.780362           -0.700132            2.300022
O               -0.685976            0.110468            1.882103
O               -4.670379            0.637889           -1.055737
C               -5.633403            1.281069           -0.210835
C               -5.553735            2.780578           -0.420499
C               -4.141387            3.340097           -0.268879
C               -3.510530            3.115396            1.105454
C               -2.015048            3.376530            1.108539
N               -1.271157            2.334277            0.339563
O               -4.233327           -1.727869           -2.619855
O               -1.799356           -2.996473           -2.059218
O                0.651210           -4.189281           -1.362266
H                3.656087            0.378993            1.076792
H                2.998030            0.613745           -1.903441
H                5.324936            1.724488           -0.278761
H                4.331028            3.891215           -0.534636
H                3.490392            2.707657            1.345569
H                2.324535            4.808373            0.815193
H                1.286936            3.650982            1.664439
H                1.283982            3.877602           -1.143605
H                3.390142            3.253645           -2.658279
H                5.581905            1.252045           -2.604308
H                4.151053           -1.297454           -1.566024
H                3.774673           -1.809830            0.845337
H                2.772286           -3.958569            0.105153
H                2.692348           -3.339090           -2.189302
H                0.599503           -2.163169           -0.990432
H                0.355167           -4.270016            1.217594
H                2.311449           -3.327828            2.265673
H                1.705062           -1.825603            4.062036
H                3.360271           -1.609585            3.484916
H                1.215302            0.153926            3.002715
H               -0.968243           -1.342345           -0.255993
H               -3.354642           -3.164924           -0.708435
H               -2.641198           -0.523843           -2.054023
H               -4.882423           -1.156891           -0.075606
H               -3.368636           -1.895723            1.541488
H               -2.424144           -0.071768            2.919251
H               -1.418613           -1.538447            2.898903
H               -0.003126           -0.490224            1.529712
H               -5.421820            1.023151            0.831909
H               -6.631747            0.904660           -0.459482
H               -6.237599            3.256664            0.291815
H               -5.925728            3.025019           -1.420433
H               -4.152740            4.413096           -0.487437
H               -3.529000            2.881681           -1.055805
H               -3.682372            2.092043            1.451099
H               -3.974959            3.781271            1.839630
H               -1.775003            4.339582            0.651613
H               -1.605244            3.374062            2.120589
H               -1.829792            2.008204           -0.448140
H               -1.055679            1.492248            0.917083
H               -0.378433            2.753510           -0.017159
H               -4.682488           -0.988124           -3.038821
H               -2.354695           -3.178026           -2.825472
H               -0.238075           -4.058775           -1.725586
