84
input.log
O                2.194593            1.703127            0.687590
C                3.133910            0.780457            0.170856
C                3.456888            1.099901           -1.277761
C                4.001594            2.510529           -1.377196
C                2.998174            3.494703           -0.791366
C                2.569452            3.075450            0.614006
C                1.388866            3.876232            1.146105
O                0.199215            3.674651            0.404023
O                1.860320            3.578482           -1.632442
O                4.208189            2.897317           -2.714217
O                4.433572            0.225819           -1.777260
O                2.505426           -0.451980            0.228191
C                3.048187           -1.509904            0.999179
C                3.040215           -2.739756            0.098460
O                3.791301           -2.543911           -1.094754
C                1.604771           -3.013092           -0.313060
C                0.720996           -3.215913            0.921059
O                0.869392           -2.149758            1.838761
C                2.184107           -1.817469            2.223095
C                2.065556           -0.687173            3.242643
O                1.174240            0.335617            2.865113
O               -0.625328           -3.317694            0.616587
C               -1.257799           -2.165727            0.060220
C               -1.757447           -2.505673           -1.335761
C               -2.571388           -1.359911           -1.918903
C               -3.686642           -0.985429           -0.960665
O               -3.148499           -0.715336            0.329843
C               -2.454589           -1.794671            0.934410
C               -2.098397           -1.347995            2.338118
O               -1.433457           -0.097892            2.337517
O               -4.289245            0.176955           -1.382272
C               -5.592243            0.381848           -0.835351
C               -5.924549            1.860190           -0.898612
C               -4.817729            2.748444           -0.336443
C               -4.427196            2.457687            1.115444
C               -3.016499            2.921782            1.430807
N               -2.016860            2.024013            0.782446
O               -3.142462           -1.719507           -3.144604
O               -0.719227           -2.759601           -2.252861
O                1.495352           -4.178747           -1.099859
H                4.055869            0.786280            0.778177
H                2.517997            1.032765           -1.844440
H                4.941290            2.567795           -0.805796
H                3.473588            4.482250           -0.712449
H                3.426760            3.257880            1.281414
H                1.662703            4.938796            1.157919
H                1.181845            3.569760            2.174358
H                0.438901            3.772805           -0.532954
H                2.178372            3.653003           -2.540840
H                4.683817            2.189863           -3.161850
H                4.088629           -0.679479           -1.741260
H                4.071776           -1.273392            1.318190
H                3.432656           -3.603470            0.650668
H                4.671360           -2.913040           -0.986753
H                1.244564           -2.142617           -0.872634
H                0.982432           -4.173321            1.393250
H                2.661833           -2.667392            2.742072
H                1.670341           -1.103292            4.171886
H                3.066982           -0.290549            3.459813
H                1.516606            0.821931            2.095293
H               -0.565879           -1.316742            0.026255
H               -2.413249           -3.387092           -1.253202
H               -1.913550           -0.480884           -2.027643
H               -4.410612           -1.815259           -0.891955
H               -3.108478           -2.678044            1.015977
H               -3.023949           -1.233095            2.910262
H               -1.484791           -2.115487            2.814622
H               -0.476081           -0.178104            2.523443
H               -5.608758            0.024018            0.200907
H               -6.319870           -0.204168           -1.408926
H               -6.864431            2.018405           -0.357284
H               -6.109354            2.145536           -1.938806
H               -5.114456            3.798682           -0.425084
H               -3.948455            2.632801           -0.995392
H               -4.485189            1.386577            1.334339
H               -5.121401            2.953401            1.800207
H               -2.838470            3.936160            1.064972
H               -2.807462            2.903672            2.502028
H               -2.364629            1.693416           -0.119392
H               -1.849204            1.157878            1.358863
H               -1.115127            2.520485            0.645406
H               -2.450162           -2.136703           -3.667649
H               -0.244268           -3.557789           -1.981324
H                2.151039           -4.109716           -1.802360
