84
input.log
O               -2.654679            2.164637            0.380298
C               -2.394106            1.050793            1.227702
C               -0.991020            1.095696            1.823572
C               -0.579822            2.459618            2.335814
C               -0.839864            3.516617            1.277248
C               -2.317092            3.458306            0.875483
C               -2.686703            4.443081           -0.224786
O               -1.878212            4.300796           -1.382232
O                0.023951            3.259827            0.191104
O                0.809669            2.446975            2.633263
O               -0.848780            0.182661            2.885135
O               -2.345939           -0.065412            0.420734
C               -3.515940           -0.624493           -0.171539
C               -3.688401           -2.020278            0.396426
O               -3.959398           -1.916322            1.773252
C               -2.390557           -2.773059            0.166782
C               -1.894571           -2.716767           -1.285137
O               -2.022504           -1.434458           -1.873092
C               -3.248235           -0.763041           -1.672778
C               -3.183261            0.535756           -2.462979
O               -2.105668            1.388430           -2.113261
O               -0.548075           -3.075981           -1.390093
C                0.381882           -2.277312           -0.674756
C                1.090429           -3.126380            0.368992
C                2.164120           -2.300754            1.050605
C                3.149469           -1.778058            0.022685
O                2.488261           -1.080619           -1.001280
C                1.408503           -1.724545           -1.671618
C                0.836385           -0.642817           -2.565476
O                0.493875            0.489266           -1.782055
O                3.963487           -0.838791            0.653421
C                5.249345           -0.628903            0.038533
C                5.693229            0.810558            0.266171
C                5.518116            1.745413           -0.932160
C                4.102879            1.944849           -1.477680
C                3.118334            2.579042           -0.498198
N                2.275158            1.556968            0.177729
O                2.788036           -3.134390            1.996365
O                0.167318           -3.596679            1.331843
O               -2.559203           -4.102035            0.584439
H               -3.176101            0.983318            1.998117
H               -0.325010            0.840096            0.988967
H               -1.155635            2.706784            3.237751
H               -0.638765            4.507927            1.708474
H               -2.932421            3.688457            1.758580
H               -2.532365            5.460686            0.142764
H               -3.748435            4.328183           -0.467322
H               -2.187227            3.558923           -1.918568
H               -0.356642            3.703614           -0.586818
H                0.937728            1.834345            3.364999
H               -1.174231           -0.678768            2.602776
H               -4.397744           -0.005519            0.024868
H               -4.516614           -2.520792           -0.127301
H               -3.938811           -2.808754            2.134870
H               -1.649068           -2.283338            0.799938
H               -2.433935           -3.465839           -1.878361
H               -4.082487           -1.341558           -2.104745
H               -3.055589            0.289875           -3.518994
H               -4.142133            1.059002           -2.350740
H               -2.223823            1.640144           -1.176981
H               -0.116670           -1.424248           -0.200899
H                1.561785           -3.981611           -0.139378
H                1.685856           -1.437008            1.540334
H                3.746407           -2.610833           -0.383105
H                1.777824           -2.555346           -2.290515
H                1.599462           -0.359116           -3.298784
H               -0.036043           -1.034482           -3.090380
H               -0.437582            0.731816           -1.947073
H                5.174520           -0.848047           -1.032387
H                5.949722           -1.339377            0.488228
H                6.753202            0.811530            0.536738
H                5.172981            1.192719            1.153821
H                6.145850            1.374970           -1.750800
H                5.929918            2.725750           -0.664673
H                3.685818            0.999242           -1.842233
H                4.173526            2.595079           -2.354050
H                3.634267            3.149831            0.278488
H                2.423850            3.255566           -0.995485
H                1.603803            1.146965           -0.505838
H                1.734354            1.977664            0.947064
H                2.849751            0.780161            0.529289
H                3.395626           -2.609672            2.524511
H                0.682136           -4.006342            2.036569
H               -1.682989           -4.413959            0.844026
