84
input.log
O                2.373754            1.574864            0.636668
C                3.209837            0.532254            0.163247
C                3.609421            0.769863           -1.282019
C                4.297812            2.115074           -1.406560
C                3.407235            3.221368           -0.861988
C                2.914998            2.887372            0.545008
C                1.837496            3.837925            1.045890
O                0.640760            3.769358            0.287266
O                2.296111            3.416937           -1.722882
O                4.563608            2.438308           -2.750913
O                4.514672           -0.202588           -1.722186
O                2.427546           -0.606168            0.249495
C                2.884246           -1.732646            0.981864
C                2.735441           -2.944142            0.079596
O                3.516621           -2.770356           -1.083401
C                1.270380           -3.102889           -0.278159
C                0.421852           -3.230585            0.988937
O                0.675058           -2.164339            1.886926
C                2.028899           -1.952254            2.229684
C                2.045786           -0.805072            3.235177
O                1.261819            0.306340            2.857047
O               -0.945517           -3.238624            0.733686
C               -1.493155           -2.084021            0.116041
C               -2.094136           -2.468879           -1.225610
C               -2.868477           -1.309029           -1.843832
C               -3.897660           -0.786394           -0.854981
O               -3.233380           -0.436151            0.348829
C               -2.605104           -1.527530            1.008771
C               -2.131164           -1.014843            2.352531
O               -1.327021            0.139996            2.214385
O               -4.483852            0.345204           -1.360324
C               -5.645753            0.780065           -0.648079
C               -5.766517            2.285048           -0.789635
C               -4.491175            3.029847           -0.403828
C               -4.046939            2.828341            1.045195
C               -2.608619            3.255723            1.277649
N               -1.662259            2.288101            0.653559
O               -3.397378           -1.693383           -3.091512
O               -1.076332           -2.882340           -2.115626
O                1.148242           -4.236650           -1.094374
H                4.111380            0.447463            0.794808
H                2.685237            0.776669           -1.877598
H                5.231148            2.084474           -0.823090
H                3.991606            4.149866           -0.799170
H                3.781554            2.977504            1.219589
H                2.237225            4.859527            1.041984
H                1.580413            3.579790            2.076133
H                0.908744            3.805389           -0.647481
H                2.631995            3.413411           -2.628072
H                4.971192            1.670166           -3.165078
H                4.115124           -1.086243           -1.636196
H                3.935897           -1.607140            1.267589
H                3.077849           -3.835631            0.625984
H                3.225108           -3.437026           -1.717210
H                0.970194           -2.202662           -0.825256
H                0.625882           -4.197677            1.468185
H                2.436843           -2.838113            2.746356
H                1.622637           -1.163803            4.175813
H                3.085695           -0.511958            3.431647
H                1.649106            0.751301            2.083742
H               -0.733481           -1.305589           -0.015485
H               -2.788082           -3.307728           -1.047132
H               -2.171576           -0.490573           -2.056153
H               -4.652018           -1.567312           -0.628949
H               -3.335082           -2.331981            1.195257
H               -3.010133           -0.752680            2.950304
H               -1.583368           -1.809885            2.862130
H               -0.390593           -0.017758            2.464838
H               -5.553534            0.493880            0.405125
H               -6.528992            0.279801           -1.062550
H               -6.610738            2.616838           -0.174075
H               -6.018871            2.528556           -1.826331
H               -4.627701            4.100265           -0.590885
H               -3.707498            2.702438           -1.098707
H               -4.141244            1.779108            1.342750
H               -4.692131            3.404612            1.715427
H               -2.407361            4.240741            0.848701
H               -2.361846            3.290763            2.340375
H               -2.000252            2.004557           -0.265346
H               -1.584390            1.406722            1.230283
H               -0.719238            2.719086            0.543898
H               -4.207537           -2.195591           -2.962511
H               -1.467347           -2.912509           -2.997289
H                0.328077           -4.118637           -1.595317
