84
input.log
O                2.130976            1.709782            0.682153
C                3.117503            0.802743            0.230325
C                3.550202            1.118780           -1.190192
C                4.046068            2.549292           -1.268696
C                2.976898            3.505173           -0.761579
C                2.483250            3.088063            0.621880
C                1.262355            3.869260            1.085014
O                0.115364            3.633545            0.287347
O                1.884797            3.536723           -1.664976
O                4.328514            2.928013           -2.594325
O                4.605558            0.286874           -1.587345
O                2.488835           -0.433926            0.257540
C                3.055245           -1.508656            0.984295
C                3.063565           -2.711717            0.052418
O                3.852603           -2.425366           -1.080603
C                1.626229           -3.000813           -0.344111
C                0.738247           -3.227949            0.882632
O                0.883986           -2.189557            1.824032
C                2.202270           -1.850296            2.205360
C                2.072625           -0.732172            3.237576
O                1.168471            0.285696            2.875013
O               -0.604612           -3.329727            0.560695
C               -1.236002           -2.161879            0.027335
C               -1.712915           -2.453470           -1.388050
C               -2.554864           -1.307006           -1.931088
C               -3.684224           -0.990308           -0.969612
O               -3.158422           -0.752531            0.330951
C               -2.440075           -1.829591            0.907665
C               -2.082544           -1.393487            2.315198
O               -1.432995           -0.135614            2.316913
O               -4.305057            0.175759           -1.354628
C               -5.611287            0.340990           -0.800096
C               -5.982918            1.810615           -0.845146
C               -4.893398            2.723704           -0.288811
C               -4.468381            2.427108            1.153181
C               -3.046779            2.881099            1.432434
N               -2.070763            1.982065            0.749894
O               -3.108572           -1.635455           -3.172692
O               -0.662326           -2.622505           -2.312221
O                1.545339           -4.083370           -1.255297
H                3.992846            0.817910            0.902932
H                2.667172            1.004017           -1.834352
H                4.943292            2.644556           -0.637222
H                3.412706            4.509948           -0.671408
H                3.300867            3.291108            1.331867
H                1.513011            4.937468            1.096737
H                1.010694            3.570542            2.105782
H                0.401276            3.704531           -0.639315
H                2.248867            3.606432           -2.556130
H                4.865591            2.235979           -2.994304
H                4.314407           -0.639452           -1.561598
H                4.080181           -1.273544            1.296976
H                3.489373           -3.570081            0.596753
H                3.622596           -3.057085           -1.771485
H                1.257531           -2.134689           -0.896845
H                0.992037           -4.195607            1.348560
H                2.687522           -2.702573            2.711583
H                1.684276           -1.162041            4.163360
H                3.069921           -0.327084            3.456421
H                1.494812            0.782751            2.105181
H               -0.546670           -1.310228            0.031540
H               -2.341909           -3.356943           -1.354855
H               -1.916382           -0.410056           -2.003207
H               -4.393268           -1.834964           -0.934399
H               -3.075755           -2.727128            0.976943
H               -3.007501           -1.295957            2.891706
H               -1.456897           -2.156593            2.782786
H               -0.478708           -0.204900            2.524604
H               -5.613162           -0.029379            0.231822
H               -6.325502           -0.257498           -1.377619
H               -6.919733            1.937839           -0.290567
H               -6.188883            2.100901           -1.879956
H               -5.222242            3.765513           -0.359446
H               -4.031972            2.643934           -0.962966
H               -4.528241            1.356252            1.373094
H               -5.141125            2.925582            1.856919
H               -2.873438            3.896449            1.067209
H               -2.808459            2.855512            2.497389
H               -2.456563            1.640575           -0.132866
H               -1.875227            1.124203            1.326001
H               -1.178559            2.483351            0.567606
H               -2.396930           -1.992287           -3.714192
H               -0.178679           -3.436241           -2.118471
H                1.656103           -4.919134           -0.789868
